data/AB_grid.m
function mpc = case5
%CASE5  Power flow data for modified 5 bus, 5 gen case based on PJM 5-bus system
%   Please see CASEFORMAT for details on the case file format.
%
%   Based on data from ...
%     F.Li and R.Bo, "Small Test Systems for Power System Economic Studies",
%     Proceedings of the 2010 IEEE Power & Energy Society General Meeting

%   Created by Rui Bo in 2006, modified in 2010, 2014.
%   Distributed with permission.

%   MATPOWER

%% MATPOWER Case Format : Version 2
mpc.version = '2';

%%-----  Power Flow Data  -----%%
%% system MVA base
mpc.baseMVA = 100;

%% bus data																					
%	bus_i	type	Pd	Qd	Gs	Bs	area	Vm	Va	baseKV	zone	Vmax	Vmin								
mpc.bus = [																					
	4	2	59.9	19.7	0	0	1	1	0	230	1	1.1	0.9;
	6	2	1797.6	590.8	0	0	1	1	0	230	1	1.1	0.9;
	13	2	132.6	43.6	0	0	1	1	0	230	1	1.1	0.9;
	17	2	47.8	15.7	0	0	1	1	0	230	1	1.1	0.9;
	18	2	54.9	18.0	0	0	1	1	0	230	1	1.1	0.9;
	19	2	120.0	39.4	0	0	1	1	0	230	1	1.1	0.9;
	20	2	379.0	124.6	0	0	1	1	0	230	1	1.1	0.9;
	21	2	102.7	33.8	0	0	1	1	0	230	1	1.1	0.9;
	22	2	66.7	21.9	0	0	1	1	0	230	1	1.1	0.9;
	23	2	36.4	12.0	0	0	1	1	0	230	1	1.1	0.9;
	24	2	98.7	32.4	0	0	1	1	0	230	1	1.1	0.9;
	25	3	892.9	293.5	0	0	1	1	0	230	1	1.1	0.9;
	26	2	287.3	94.4	0	0	1	1	0	230	1	1.1	0.9;
	27	2	137.2	45.1	0	0	1	1	0	230	1	1.1	0.9;
	28	2	238.6	78.4	0	0	1	1	0	230	1	1.1	0.9;
	29	2	134.1	44.1	0	0	1	1	0	230	1	1.1	0.9;
	30	2	161.3	53.0	0	0	1	1	0	230	1	1.1	0.9;
	31	2	152.9	50.3	0	0	1	1	0	230	1	1.1	0.9;
	32	2	145.1	47.7	0	0	1	1	0	230	1	1.1	0.9;
	33	2	571.3	187.8	0	0	1	1	0	230	1	1.1	0.9;
	34	2	7.8	2.6	0	0	1	1	0	230	1	1.1	0.9;
	35	2	434.2	142.7	0	0	1	1	0	230	1	1.1	0.9;
	36	2	22.4	7.4	0	0	1	1	0	230	1	1.1	0.9;
	37	2	113.0	37.1	0	0	1	1	0	230	1	1.1	0.9;
	38	2	93.6	30.8	0	0	1	1	0	230	1	1.1	0.9;
	39	2	96.2	31.6	0	0	1	1	0	230	1	1.1	0.9;
	40	2	173.2	56.9	0	0	1	1	0	230	1	1.1	0.9;
	42	2	225.0	74.0	0	0	1	1	0	230	1	1.1	0.9;
	43	2	36.5	12.0	0	0	1	1	0	230	1	1.1	0.9;
	44	2	207.6	68.2	0	0	1	1	0	230	1	1.1	0.9;
	45	2	117.1	38.5	0	0	1	1	0	230	1	1.1	0.9;
	46	2	117.4	38.6	0	0	1	1	0	230	1	1.1	0.9;
	47	2	102.6	33.7	0	0	1	1	0	230	1	1.1	0.9;
	48	2	253.5	83.3	0	0	1	1	0	230	1	1.1	0.9;
	49	2	31.9	10.5	0	0	1	1	0	230	1	1.1	0.9;
	52	2	199.1	65.4	0	0	1	1	0	230	1	1.1	0.9;
	53	2	45.3	14.9	0	0	1	1	0	230	1	1.1	0.9;
	54	2	286.5	94.2	0	0	1	1	0	230	1	1.1	0.9;
	55	2	44.8	14.7	0	0	1	1	0	230	1	1.1	0.9;
	56	2	95.7	31.5	0	0	1	1	0	230	1	1.1	0.9;
	57	2	127.3	41.8	0	0	1	1	0	230	1	1.1	0.9;
	60	2	2048.3	673.3	0	0	1	1	0	230	1	1.1	0.9;
];																					
																					
%% generator data																					
%	bus	Pg	Qg	Qmax	Qmin	Vg	mBase	status	Pmax	Pmin	Pc1	Pc2	Qc1min	Qc1max	Qc2min	Qc2max	ramp_agc	ramp_10	ramp_30	ramp_q	apf
mpc.gen = [																					
	4	794	0	384.5	-384.5	1	100	1	1323	0	0	0	0	0	0	0	0	0	0	0	0;
	6	907	0	439.1	-439.1	1	100	1	1511	0	0	0	0	0	0	0	0	0	0	0	0;
	13	91	0	44.2	-44.2	1	100	1	152	0	0	0	0	0	0	0	0	0	0	0	0;
	17	102	0	49.4	-49.4	1	100	1	170	0	0	0	0	0	0	0	0	0	0	0	0;
	18	0	0	0.0	0.0	1	100	1	0	0	0	0	0	0	0	0	0	0	0	0	0;
	19	43	0	20.9	-20.9	1	100	1	72	0	0	0	0	0	0	0	0	0	0	0	0;
	20	238	0	115.4	-115.4	1	100	1	397	0	0	0	0	0	0	0	0	0	0	0	0;
	21	5	0	2.6	-2.6	1	100	1	9	0	0	0	0	0	0	0	0	0	0	0	0;
	22	180	0	87.2	-87.2	1	100	1	300	0	0	0	0	0	0	0	0	0	0	0	0;
	23	60	0	29.1	-29.1	1	100	1	100	0	0	0	0	0	0	0	0	0	0	0	0;
	24	0	0	0.0	0.0	1	100	1	0	0	0	0	0	0	0	0	0	0	0	0	0;
	25	1710	0	828.2	-828.2	1	100	1	2850	0	0	0	0	0	0	0	0	0	0	0	0;
	26	92	0	44.8	-44.8	1	100	1	154	0	0	0	0	0	0	0	0	0	0	0	0;
	27	89	0	43.3	-43.3	1	100	1	149	0	0	0	0	0	0	0	0	0	0	0	0;
	28	353	0	171.2	-171.2	1	100	1	589	0	0	0	0	0	0	0	0	0	0	0	0;
	29	38	0	18.3	-18.3	1	100	1	63	0	0	0	0	0	0	0	0	0	0	0	0;
	30	218	0	105.5	-105.5	1	100	1	363	0	0	0	0	0	0	0	0	0	0	0	0;
	31	6	0	2.9	-2.9	1	100	1	10	0	0	0	0	0	0	0	0	0	0	0	0;
	32	15	0	7.3	-7.3	1	100	1	25	0	0	0	0	0	0	0	0	0	0	0	0;
	33	496	0	240.3	-240.3	1	100	1	827	0	0	0	0	0	0	0	0	0	0	0	0;
	34	72	0	34.9	-34.9	1	100	1	120	0	0	0	0	0	0	0	0	0	0	0	0;
	35	288	0	139.5	-139.5	1	100	1	480	0	0	0	0	0	0	0	0	0	0	0	0;
	36	330	0	159.8	-159.8	1	100	1	550	0	0	0	0	0	0	0	0	0	0	0	0;
	37	29	0	14.2	-14.2	1	100	1	49	0	0	0	0	0	0	0	0	0	0	0	0;
	38	11	0	5.5	-5.5	1	100	1	19	0	0	0	0	0	0	0	0	0	0	0	0;
	39	49	0	23.8	-23.8	1	100	1	82	0	0	0	0	0	0	0	0	0	0	0	0;
	40	1527	0	739.6	-739.6	1	100	1	2545	0	0	0	0	0	0	0	0	0	0	0	0;
	42	433	0	209.5	-209.5	1	100	1	721	0	0	0	0	0	0	0	0	0	0	0	0;
	43	605	0	292.9	-292.9	1	100	1	1008	0	0	0	0	0	0	0	0	0	0	0	0;
	44	192	0	93.0	-93.0	1	100	1	320	0	0	0	0	0	0	0	0	0	0	0	0;
	45	166	0	80.2	-80.2	1	100	1	276	0	0	0	0	0	0	0	0	0	0	0	0;
	46	12	0	5.8	-5.8	1	100	1	20	0	0	0	0	0	0	0	0	0	0	0	0;
	47	29	0	14.2	-14.2	1	100	1	49	0	0	0	0	0	0	0	0	0	0	0	0;
	48	190	0	92.1	-92.1	1	100	1	317	0	0	0	0	0	0	0	0	0	0	0	0;
	49	568	0	275.2	-275.2	1	100	1	947	0	0	0	0	0	0	0	0	0	0	0	0;
	52	199	0	96.5	-96.5	1	100	1	332	0	0	0	0	0	0	0	0	0	0	0	0;
	53	623	0	301.6	-301.6	1	100	1	1038	0	0	0	0	0	0	0	0	0	0	0	0;
	54	130	0	62.8	-62.8	1	100	1	216	0	0	0	0	0	0	0	0	0	0	0	0;
	55	47	0	22.7	-22.7	1	100	1	78	0	0	0	0	0	0	0	0	0	0	0	0;
	56	0	0	0.0	0.0	1	100	1	0	0	0	0	0	0	0	0	0	0	0	0	0;
	57	0	0	0.0	0.0	1	100	1	0	0	0	0	0	0	0	0	0	0	0	0	0;
	60	220	0	106.4	-106.4	1	100	1	366	0	0	0	0	0	0	0	0	0	0	0	0;
];																					
																					
																					
%% branch data													
%	fbus	tbus	r	x	b	rateA	rateB	rateC	ratio	angle	status	angmin	angmax
mpc.branch = [													
	4	47	0.00149	0.02970	0.00712	500	500	500	0	0	1	-360	360;
	4	48	0.00062	0.01239	0.00297	500	500	500	0	0	1	-360	360;
	6	39	0.00072	0.01442	0.00346	500	500	500	0	0	1	-360	360;
	6	57	0.00035	0.00705	0.00169	500	500	500	0	0	1	-360	360;
	13	32	0.00073	0.01468	0.00352	500	500	500	0	0	1	-360	360;
	13	37	0.00115	0.02296	0.00550	500	500	500	0	0	1	-360	360;
	17	18	0.00184	0.03685	0.00884	500	500	500	0	0	1	-360	360;
	17	19	0.00337	0.06742	0.01616	500	500	500	0	0	1	-360	360;
	19	25	0.00513	0.10253	0.02458	500	500	500	0	0	1	-360	360;
	19	21	0.00277	0.05541	0.01328	500	500	500	0	0	1	-360	360;
	19	20	0.00244	0.04883	0.01170	500	500	500	0	0	1	-360	360;
	19	23	0.00164	0.03275	0.00785	500	500	500	0	0	1	-360	360;
	19	21	0.00277	0.05541	0.01328	500	500	500	0	0	1	-360	360;
	20	23	0.00154	0.03073	0.00737	500	500	500	0	0	1	-360	360;
	20	22	0.00129	0.02571	0.00616	500	500	500	0	0	1	-360	360;
	21	26	0.00056	0.01119	0.00268	500	500	500	0	0	1	-360	360;
	21	25	0.00433	0.08653	0.02074	500	500	500	0	0	1	-360	360;
	21	40	0.00218	0.04359	0.01045	500	500	500	0	0	1	-360	360;
	23	22	0.00172	0.03449	0.00827	500	500	500	0	0	1	-360	360;
	23	24	0.00102	0.02030	0.00487	500	500	500	0	0	1	-360	360;
	23	26	0.00148	0.02952	0.00708	500	500	500	0	0	1	-360	360;
	23	21	0.00146	0.02925	0.00701	500	500	500	0	0	1	-360	360;
	24	29	0.00094	0.01880	0.00451	500	500	500	0	0	1	-360	360;
	25	40	0.00595	0.11909	0.02855	500	500	500	0	0	1	-360	360;
	25	27	0.00316	0.06318	0.01515	500	500	500	0	0	1	-360	360;
	25	28	0.00359	0.07177	0.01720	500	500	500	0	0	1	-360	360;
	26	24	0.00153	0.03063	0.00734	500	500	500	0	0	1	-360	360;
	26	40	0.00133	0.02668	0.00640	500	500	500	0	0	1	-360	360;
	27	40	0.00241	0.04810	0.01153	500	500	500	0	0	1	-360	360;
	27	60	0.00162	0.03234	0.00775	500	500	500	0	0	1	-360	360;
	27	33	0.00110	0.02201	0.00528	500	500	500	0	0	1	-360	360;
	27	56	0.00199	0.03973	0.00952	500	500	500	0	0	1	-360	360;
	27	28	0.00152	0.03038	0.00728	500	500	500	0	0	1	-360	360;
	28	33	0.00160	0.03193	0.00765	500	500	500	0	0	1	-360	360;
	28	56	0.00141	0.02826	0.00678	500	500	500	0	0	1	-360	360;
	28	13	0.00137	0.02742	0.00657	500	500	500	0	0	1	-360	360;
	29	40	0.00141	0.02829	0.00678	500	500	500	0	0	1	-360	360;
	29	30	0.00162	0.03238	0.00776	500	500	500	0	0	1	-360	360;
	30	40	0.00151	0.03015	0.00723	500	500	500	0	0	1	-360	360;
	30	35	0.00157	0.03146	0.00754	500	500	500	0	0	1	-360	360;
	31	35	0.00095	0.01899	0.00455	500	500	500	0	0	1	-360	360;
	32	36	0.00085	0.01706	0.00409	500	500	500	0	0	1	-360	360;
	32	37	0.00041	0.00817	0.00196	500	500	500	0	0	1	-360	360;
	34	38	0.00119	0.02376	0.00570	500	500	500	0	0	1	-360	360;
	35	39	0.00063	0.01270	0.00304	500	500	500	0	0	1	-360	360;
	35	6	0.00161	0.03215	0.00771	500	500	500	0	0	1	-360	360;
	35	57	0.00100	0.01992	0.00478	500	500	500	0	0	1	-360	360;
	36	37	0.00129	0.02580	0.00619	500	500	500	0	0	1	-360	360;
	38	35	0.00087	0.01735	0.00416	500	500	500	0	0	1	-360	360;
	38	39	0.00083	0.01659	0.00398	500	500	500	0	0	1	-360	360;
	40	35	0.00241	0.04821	0.01156	500	500	500	0	0	1	-360	360;
	40	60	0.00097	0.01949	0.00467	1000	1000	1000	0	0	1	-360	360;
	40	6	0.00443	0.08866	0.02126	500	500	500	0	0	1	-360	360;
	42	35	0.00155	0.03108	0.00745	500	500	500	0	0	1	-360	360;
	42	36	0.00077	0.01536	0.00368	500	500	500	0	0	1	-360	360;
	42	37	0.00187	0.03746	0.00898	500	500	500	0	0	1	-360	360;
	43	42	0.00079	0.01572	0.00377	500	500	500	0	0	1	-360	360;
	44	39	0.00136	0.02717	0.00651	500	500	500	0	0	1	-360	360;
	44	6	0.00088	0.01758	0.00421	500	500	500	0	0	1	-360	360;
	45	6	0.00093	0.01866	0.00447	500	500	500	0	0	1	-360	360;
	46	6	0.00089	0.01787	0.00428	500	500	500	0	0	1	-360	360;
	46	45	0.00092	0.01832	0.00439	500	500	500	0	0	1	-360	360;
	47	45	0.00097	0.01941	0.00465	500	500	500	0	0	1	-360	360;
	47	6	0.00239	0.04784	0.01147	500	500	500	0	0	1	-360	360;
	47	33	0.00551	0.11015	0.02641	500	500	500	0	0	1	-360	360;
	47	43	0.00064	0.01282	0.00307	500	500	500	0	0	1	-360	360;
	48	47	0.00117	0.02339	0.00561	500	500	500	0	0	1	-360	360;
	48	42	0.00234	0.04684	0.01123	500	500	500	0	0	1	-360	360;
	49	46	0.00099	0.01981	0.00475	500	500	500	0	0	1	-360	360;
	49	45	0.00084	0.01687	0.00404	500	500	500	0	0	1	-360	360;
	49	47	0.00123	0.02456	0.00589	500	500	500	0	0	1	-360	360;
	52	4	0.00123	0.02461	0.00590	500	500	500	0	0	1	-360	360;
	52	47	0.00103	0.02067	0.00496	500	500	500	0	0	1	-360	360;
	53	54	0.00085	0.01707	0.00409	500	500	500	0	0	1	-360	360;
	53	49	0.00129	0.02575	0.00617	500	500	500	0	0	1	-360	360;
	54	52	0.00071	0.01410	0.00338	500	500	500	0	0	1	-360	360;
	54	49	0.00079	0.01579	0.00378	500	500	500	0	0	1	-360	360;
	55	53	0.00059	0.01172	0.00281	500	500	500	0	0	1	-360	360;
	55	54	0.00059	0.01172	0.00281	500	500	500	0	0	1	-360	360;
	56	13	0.00085	0.01706	0.00409	500	500	500	0	0	1	-360	360;
	56	36	0.00218	0.04369	0.01048	500	500	500	0	0	1	-360	360;
	56	31	0.00205	0.04105	0.00984	500	500	500	0	0	1	-360	360;
	60	35	0.00179	0.03590	0.00861	500	500	500	0	0	1	-360	360;
	60	31	0.00084	0.01677	0.00402	500	500	500	0	0	1	-360	360;
	60	33	0.00050	0.01000	0.00240	500	500	500	0	0	1	-360	360;
];													
																
																					
%%-----  OPF Data  -----%%																					
%% generator cost data																					
%	1	startup	shutdown	n	x1	y1	...	xn	yn												
%	2	startup	shutdown	n	c(n-1)	...	c0														
mpc.gencost = [																					
	2	0	0	2	20	0;															
	2	0	0	2	10	0;															
	2	0	0	2	30	0;															
	2	0	0	2	20	0;															
	2	0	0	2	30	0;															
	2	0	0	2	20	0;															
	2	0	0	2	20	0;															
	2	0	0	2	10	0;															
	2	0	0	2	20	0;															
	2	0	0	2	10	0;															
	2	0	0	2	30	0;															
	2	0	0	2	20	0;															
	2	0	0	2	20	0;															
	2	0	0	2	10	0;															
	2	0	0	2	30	0;															
	2	0	0	2	20	0;															
	2	0	0	2	30	0;															
	2	0	0	2	20	0;															
	2	0	0	2	20	0;															
	2	0	0	2	10	0;															
	2	0	0	2	20	0;															
	2	0	0	2	10	0;															
	2	0	0	2	30	0;															
	2	0	0	2	20	0;															
	2	0	0	2	10	0;															
	2	0	0	2	30	0;															
	2	0	0	2	20	0;															
	2	0	0	2	30	0;															
	2	0	0	2	20	0;															
	2	0	0	2	20	0;															
	2	0	0	2	10	0;															
	2	0	0	2	20	0;															
	2	0	0	2	10	0;															
	2	0	0	2	30	0;															
	2	0	0	2	20	0;															
	2	0	0	2	20	0;															
	2	0	0	2	10	0;															
	2	0	0	2	30	0;															
	2	0	0	2	20	0;															
	2	0	0	2	30	0;															
	2	0	0	2	20	0;															
	2	0	0	2	20	0;															
];																					


% hours
mpc.time_elapsed = 1.0

%% storage data
%   storage_bus ps qs energy  energy_rating charge_rating  discharge_rating  charge_efficiency  discharge_efficiency  thermal_rating  qmin  qmax  r  x  p_loss  q_loss  status
mpc.storage = [
%	 3	 0.0	 0.0	 20.0	 100.0	 50.0	 70.0	 0.8	 0.9	 100.0	 -50.0	 70.0	 0.1	 0.0	 0.0	 0.0	 1;
%	 2	 0.0	 0.0	 30.0	 100.0	 50.0	 70.0	 0.9	 0.8	 100.0	 -50.0	 70.0	 0.1	 0.0	 0.0	 0.0	 1;
	 6	 0.0	 0.0	 20.0	 100.0	 20.0	 20.0	 0.9	 0.9	 100.0	 -50.0	 70.0	 0.1	 0.0	 0.0	 0.0	 1;
	 60	 0.0	 0.0	 30.0	 100.0	 20.0	 20.0	 0.9	 0.9	 100.0	 -50.0	 70.0	 0.1	 0.0	 0.0	 0.0	 1;
];
